28

C       -4.499501659497745        -14.950418822795688       -6.0658945466424115       
H       -4.03468164258417         -15.123910863422738       -7.026929912128785        
C       -5.882986644521869        -14.812773825934546       -5.977857105448926        
H       -6.491519686044405        -14.885400199596416       -6.86865865305875         
C       -6.48278677463097         -14.594094676225664       -4.739330705486573        
H       -7.557256550059987        -14.48990085815062        -4.670748054878247        
C       -5.700169618511421        -14.515303833249883       -3.588928810490519        
H       -6.166347774187266        -14.34540813569477        -2.6276890541742666       
C       -4.316057214251732        -14.655538485031313       -3.6769719522688833       
H       -3.7079674822719193       -14.59327569141785        -2.7844240698602314       
C       -3.715639231565712        -14.870799917215429       -4.91603450996373         
H       -2.6413857218728          -14.97767469126507        -4.9851326255986725       
C       -5.435413906321792        -9.209914971376753        -0.7595477514085971       
C       -4.804485660357619        -7.972345050574384        -0.93268798234811         
C       -3.4569956707347993       -7.855510246420836        -1.275206210191092        
C       -2.6991367276854525       -9.028654450300046        -1.4543943497113814       
C       -3.314565849540956        -10.274507933261255       -1.2850711529379053       
C       -4.662576393400536        -10.360804562842421       -0.9427501992024805       
H       -6.484595957700579        -9.281107039890454        -0.49301330251813535      
H       -1.6483506506949177       -8.9693909691834          -1.7211430520677          
H       -2.7327208353055945       -11.182562331150402       -1.422522598487344        
C       -3.1662859875345024       -6.466047507406854        -1.363988623907682        
C       -4.32243706236873         -5.776011553034937        -1.078812952025066        
H       -4.529834361546701        -4.715335355639494        -1.0379235331929682       
N       -5.30509553089464         -6.694700944063596        -0.8198330550336141       
H       -6.261438473568726        -6.474314885975753        -0.5800839749561888       
H       -5.121890795422231        -11.338488344934415       -0.8158706802494624       
H       -2.2110761369222205       -6.022103853945032        -1.6107505817622725       

