28

C       -4.499501659497745        -14.950418822795688       -6.0658945466424115       
H       -4.03468164258417         -15.123910863422738       -7.026929912128785        
C       -5.882986644521869        -14.812773825934546       -5.977857105448926        
H       -6.491519686044405        -14.885400199596416       -6.86865865305875         
C       -6.48278677463097         -14.594094676225664       -4.739330705486573        
H       -7.557256550059987        -14.48990085815062        -4.670748054878247        
C       -5.700169618511421        -14.515303833249883       -3.588928810490519        
H       -6.166347774187266        -14.34540813569477        -2.6276890541742666       
C       -4.316057214251732        -14.655538485031313       -3.6769719522688833       
H       -3.7079674822719193       -14.59327569141785        -2.7844240698602314       
C       -3.715639231565712        -14.870799917215429       -4.91603450996373         
H       -2.6413857218728          -14.97767469126507        -4.9851326255986725       
C       -4.137192870952465        -7.256061311326377        -5.021301721342601        
C       -4.0343818890851795       -8.630420332475474        -5.266647361192959        
C       -4.1999172749630285       -9.182960439079066        -6.537078723611552        
C       -4.48194832630076         -8.325268559764687        -7.6176105446328055       
C       -4.588148221451103        -6.9481849028285705       -7.389714879756298        
C       -4.417887099573308        -6.424276693008931        -6.109756088208501        
H       -4.005340697241534        -6.844497407539658        -4.026252949981348        
H       -4.615895270046339        -8.726109141782814        -8.617712266493431        
H       -4.8058384417829405       -6.282738155660278        -8.221454565388173        
C       -4.027508223700186        -10.588893847469635       -6.408131020204597        
C       -3.7648425548355036       -10.860181330465624       -5.084662116916888        
H       -3.5747577508290203       -11.792496789886663       -4.5704877968557325       
N       -3.771371614411656        -9.67112087824037         -4.404389331679283        
H       -3.607586089675122        -9.56504042285912         -3.4131463247062785       
H       -4.504436281417602        -5.351371485129988        -5.9538158303264295       
H       -4.089747393734238        -11.321178302482735       -7.2020384787031535       

