24

C       0.4221967069598187        6.259182630051863         -5.045024075800738        
H       -0.4606903120394228       6.0793879547826295        -5.643297003842333        
C       1.611369395785736         6.644978569642925         -5.659643672905799        
H       1.649608561623851         6.770269999883571         -6.732935000413972        
C       2.7478258879231503        6.88145844100997          -4.888882800833956        
H       3.6703992982748104        7.1836003081887965        -5.365971707233801        
C       2.6950155665006656        6.734564905486682         -3.5040523097005742       
H       3.5776320200518814        6.918178039118186         -2.906187021296327        
C       1.5043084866389316        6.350915475146394         -2.8890610377570507       
H       1.4630845958031529        6.235590333040969         -1.8142158384735803       
C       0.3684820512622111        6.110986878496337         -3.6600654717319445       
H       -0.5552322587847858       5.811286465151659         -3.183464060009917        
C       0.9073369985681495        6.6340901799510466        2.000814877302731         
H       1.49594054621662          7.526579089170028         1.8372437288175922        
C       -0.4468698604567233       6.625219954034815         1.6740541971984952        
H       -0.9071624884639143       7.507803833297588         1.251809194069144         
C       -1.204547793615205        5.474125856890966         1.8800516222437584        
H       -2.255416477189501        5.4665159825123455        1.623805003349446         
C       -0.6082819974292382       4.331599626648635         2.4103562926993027        
H       -1.1970090394565533       3.438275463885376         2.5701714991381417        
C       0.7473602475726234        4.339958878233861         2.7349309782175166        
H       1.2104450618296616        3.4537040932535517        3.1477219796989337        
C       1.5045568350154428        5.492207096873049         2.532217804970762         
H       2.5561479674086383        5.499819945248746         2.785822822294169         

