24

C       0.4221967069598187        6.259182630051863         -5.045024075800738        
H       -0.4606903120394228       6.0793879547826295        -5.643297003842333        
C       1.611369395785736         6.644978569642925         -5.659643672905799        
H       1.649608561623851         6.770269999883571         -6.732935000413972        
C       2.7478258879231503        6.88145844100997          -4.888882800833956        
H       3.6703992982748104        7.1836003081887965        -5.365971707233801        
C       2.6950155665006656        6.734564905486682         -3.5040523097005742       
H       3.5776320200518814        6.918178039118186         -2.906187021296327        
C       1.5043084866389316        6.350915475146394         -2.8890610377570507       
H       1.4630845958031529        6.235590333040969         -1.8142158384735803       
C       0.3684820512622111        6.110986878496337         -3.6600654717319445       
H       -0.5552322587847858       5.811286465151659         -3.183464060009917        
C       1.8699931651316337        11.571478877989655        -2.7341979106026617       
H       2.4564120899454664        12.15635359962662         -3.4297412339192412       
C       1.5135604716479065        10.263317468740945        -3.0541930705166314       
H       1.8281450479598185        9.831579919981161         -3.994274813418571        
C       0.7622016678919961        9.50772413877342          -2.156380686035846        
H       0.48778148359510687       8.491103755553866         -2.4038110578033076       
C       0.3692100116317074        10.0587814317398          -0.9381789178634459       
H       -0.2141865953548463       9.471758441797924         -0.24160092636767905      
C       0.7281054418608479        11.366959419823022        -0.6171665790738416       
H       0.42229014680353316       11.795608148046465        0.3278354172740148        
C       1.4766246211814273        12.124014914849806        -1.5164447760957647       
H       1.753662447705401         13.139919883077315        -1.26864544557703         

