13

C       -4.234234004914712        -19.959490014287294       -1.1008456613731497       
C       -5.274595006899672        -20.82315179615444        -0.7590386221084255       
C       -5.705499958802573        -21.78914293724788        -1.6692010294591961       
C       -5.095692207452715        -21.891350549507926       -2.920781266755124        
C       -4.05417307953105         -21.027998022348783       -3.264899821938095        
C       -3.63241354973251         -20.0675907671103         -2.349582662091631        
H       -3.894043463245912        -19.20541385868774        -0.39711618429031326      
H       -5.748049773137791        -20.742269962504146       0.2156233517634254        
H       -5.433208654005359        -22.645022429525092       -3.627464686383651        
H       -3.589298722191153        -21.118827708662174       -4.241080614605124        
O       -2.6195238043030837       -19.20283060222169        -2.6436828505066274       
H       -2.3035838855584174       -19.393332701577116       -3.5418458690532546       
H       -6.516483890225036        -22.462078650165438       -1.4027840831988234       

