15

C       -4.324          -5.811          -1.075          
C       -3.451          -7.859          -1.274          
C       -4.816          -7.981          -0.929          
C       -2.693          -9.019          -1.455          
C       -3.159          -6.471          -1.366          
C       -4.665          -10.333         -0.943          
C       -5.432          -9.216          -0.753          
C       -3.31           -10.245         -1.288          
H       -4.437          -4.727          -1.048          
H       -6.316          -6.476          -0.589          
H       -1.638          -8.959          -1.722          
H       -5.12           -11.316         -0.823          
H       -6.483          -9.291          -0.475          
H       -2.732          -11.159         -1.427          
N       -5.331          -6.714          -0.822          

