12

C       -4.499501659497745        -14.950418822795688       -6.0658945466424115       
H       -4.03468164258417         -15.123910863422738       -7.026929912128785        
C       -5.882986644521869        -14.812773825934546       -5.977857105448926        
H       -6.491519686044405        -14.885400199596416       -6.86865865305875         
C       -6.48278677463097         -14.594094676225664       -4.739330705486573        
H       -7.557256550059987        -14.48990085815062        -4.670748054878247        
C       -5.700169618511421        -14.515303833249883       -3.588928810490519        
H       -6.166347774187266        -14.34540813569477        -2.6276890541742666       
C       -4.316057214251732        -14.655538485031313       -3.6769719522688833       
H       -3.7079674822719193       -14.59327569141785        -2.7844240698602314       
C       -3.715639231565712        -14.870799917215429       -4.91603450996373         
H       -2.6413857218728          -14.97767469126507        -4.9851326255986725       

