16

C       -4.137192870952465        -7.256061311326377        -5.021301721342601        
C       -4.0343818890851795       -8.630420332475474        -5.266647361192959        
C       -4.1999172749630285       -9.182960439079066        -6.537078723611552        
C       -4.48194832630076         -8.325268559764687        -7.6176105446328055       
C       -4.588148221451103        -6.9481849028285705       -7.389714879756298        
C       -4.417887099573308        -6.424276693008931        -6.109756088208501        
H       -4.005340697241534        -6.844497407539658        -4.026252949981348        
H       -4.615895270046339        -8.726109141782814        -8.617712266493431        
H       -4.8058384417829405       -6.282738155660278        -8.221454565388173        
C       -4.027508223700186        -10.588893847469635       -6.408131020204597        
C       -3.7648425548355036       -10.860181330465624       -5.084662116916888        
H       -3.5747577508290203       -11.792496789886663       -4.5704877968557325       
N       -3.771371614411656        -9.67112087824037         -4.404389331679283        
H       -3.607586089675122        -9.56504042285912         -3.4131463247062785       
H       -4.504436281417602        -5.351371485129988        -5.9538158303264295       
H       -4.089747393734238        -11.321178302482735       -7.2020384787031535       

