24

C       12.418867312916177        35.98853927277258         34.9043985456214          
H       13.231442031202405        36.155887664730315        35.59827386072578         
C       12.373396786386621        36.6944635419927          33.704260721309886        
H       13.152962912819577        37.40430315557183         33.46442989028071         
C       11.329369149745325        36.47570916855686         32.80777802318801         
H       11.295609691902392        37.0219446897723          31.87475482713731         
C       10.332385516503171        35.55000609397858         33.10980382136358         
H       9.522040680400808         35.380665385249934        32.413503985826104        
C       10.379452279384989        34.84196720896218         34.30965804464929         
H       9.605146863218934         34.124127366762735        34.54513327359489         
C       11.421677112100781        35.063115232613754        35.207976590436665        
H       11.457549663418838        34.51537121903629         36.1401284158664          
C       15.46577534545973         34.220893318512864        32.78004962695284         
H       15.846752332853498        33.93342605955688         33.75059855416089         
C       16.327382326865074        34.7594287766347          31.826980684043104        
H       17.376821610315073        34.88408488521213         32.05556873041973         
C       15.838031981170433        35.125438475684675        30.574742068854338        
H       16.507654098922607        35.54109751726452         29.833878376553237        
C       14.48837405601938         34.95108635038941         30.274497249611812        
H       14.108999585466274        35.23551575888141         29.30220952847293         
C       13.626920294051406        34.40989188209446         31.227487524209707        
H       12.578910395426512        34.27543830714784         30.995347504893108        
C       14.11544690178008         34.04697331164043         32.48118091765194         
H       13.446931071669988        33.628825356980734        33.22175923417635         

