28

C       17.826571606861858        6.440922779904147         0.1185805937982436        
H       17.113928369362135        5.816931069930365         -0.40345395671532547      
C       19.142369562961782        6.0111486925667315        0.27573469834709763       
H       19.45188486296543         5.05752524673216          -0.1291320113466624       
C       20.062107993483334        6.816810045623731         0.9439557797356743        
H       21.084405295384474        6.484178900622353         1.0635800995904574        
C       19.667304225525143        8.052616699491907         1.4529096372327535        
H       20.38173265613592         8.677620959745553         1.9716872217521808        
C       18.351229752464143        8.483517309639279         1.2933566819738957        
H       18.04393928261542         9.442217582052987         1.6892832595284117        
C       17.430324715041106        7.676372439821028         0.6281000914954906        
H       16.40840167719926         8.009438273869767         0.5057979046077834        
C       23.418183714012027        6.835153454252195         4.401149618957018         
C       23.308532763002265        7.722831353178417         5.47801168844437          
C       22.134515042792447        7.867711296225965         6.217870171355718         
C       21.013331097660163        7.090603490899342         5.868906118653943         
C       21.105895037945462        6.197932047742401         4.79459524114643          
C       22.29174396290902         6.074193670292402         4.073336403343516         
H       24.339649921345163        6.736093415380493         3.837253318701533         
H       20.08597260032628         7.181514870454141         6.426184997214833         
H       20.242360844587886        5.596224732765763         4.522095123704462         
C       22.388779570543544        8.844419719787348         7.220063438780594         
C       23.6901085483082          9.267733392951298         7.073405620228542         
H       24.272108028986466        9.992922556212973         7.625761358840947         
N       24.236168355828134        8.584529240940173         6.0190199112557545        
H       25.182237155626396        8.691877939189            5.681275121462399         
H       22.343021729213095        5.374784695868124         3.2419932809339738        
H       21.690891626913462        9.197374123859934         7.967578586975961         

