12

C       10.974902790580037        38.33752771714687         42.95749149151897         
H       10.733781471176973        38.02548110959798         43.964583112994674        
C       10.060038621271179        39.09141299090477         42.22577570945206         
H       9.11265301404114          39.36916238308266         42.666718150546345        
C       10.37215997447812         39.49782433563706         40.93003712094543         
H       9.66281520508861          40.085450380925224        40.362964939438754        
C       11.599243742676911        39.15272306061858         40.36674974686034         
H       11.840977868124897        39.46841535311392         39.360732113290766        
C       12.515516817818545        38.400456089490056        41.10004542796014         
H       13.467714425246067        38.131286881964826        40.66282791443908         
C       12.20214714906947         37.99093362528611         42.394729197079236        
H       12.912048920428049        37.405426072232025        42.96344507547421         

