9

C       12.416          35.997          34.898          
C       12.364          36.685          33.694          
H       13.1455         37.3954         33.4498         
C       11.337          36.478          32.809          
C       10.346          35.551          33.118          
C       10.372          34.85           34.307          
H       9.5825          34.1462         34.5446         
C       11.424          35.056          35.2            
H       11.4732         34.4902         36.1233         

