11

C       15.466          34.218          32.77           
C       15.848          35.124          30.584          
C       14.122          34.042          32.474          
C       14.494          34.932          30.29           
C       16.342          34.767          31.823          
C       13.622          34.427          31.231          
H       15.845          33.926          33.749          
H       16.513          35.555          29.835          
H       13.455          33.602          33.215          
H       14.121          35.187          29.298          
H       12.56           34.33           31.007          

