12

C       12.418867312916177        35.98853927277258         34.9043985456214          
H       13.231442031202405        36.155887664730315        35.59827386072578         
C       12.373396786386621        36.6944635419927          33.704260721309886        
H       13.152962912819577        37.40430315557183         33.46442989028071         
C       11.329369149745325        36.47570916855686         32.80777802318801         
H       11.295609691902392        37.0219446897723          31.87475482713731         
C       10.332385516503171        35.55000609397858         33.10980382136358         
H       9.522040680400808         35.380665385249934        32.413503985826104        
C       10.379452279384989        34.84196720896218         34.30965804464929         
H       9.605146863218934         34.124127366762735        34.54513327359489         
C       11.421677112100781        35.063115232613754        35.207976590436665        
H       11.457549663418838        34.51537121903629         36.1401284158664          

