12

C       9.69710126282692          36.63710132870671         26.106513935123868        
H       8.870582879469337         37.315677553482516        25.944811185793522        
C       10.273829986436306        35.974377425243325        25.025353240711546        
H       9.899236679965975         36.143107650484545        24.02519104594628         
C       11.341833431479971        35.103756974045744        25.23251762310238         
H       11.79128660891635         34.59128297265678         24.392632232592028        
C       11.834639997400533        34.89740500476816         26.519639483440727        
H       12.663723333817266        34.22130760043821         26.6798943153005          
C       11.258969237108259        35.56256597493431         27.60100369568013         
H       11.64036309159677         35.40183329397677         28.60050118593741         
C       10.188554725515209        36.43070896869918         27.394470948281608        
H       9.740178765467084         36.94557525256375         28.23357110808997         

