11

C       98.757          20.663          37.312          
C       99.615          19.969          39.422          
C       99.102          21.976          37.639          
C       99.948          21.242          39.754          
C       99.052          19.641          38.207          
C       99.703          22.252          38.872          
H       98.262          20.442          36.366          
H       99.8            19.174          40.145          
H       98.903          22.784          36.935          
H       100.408         21.455          40.719          
H       99.976          23.276          39.128          

