12

C       99.70938113384763         25.80483882576295         41.67761943709702         
H       99.99355975453432         24.973600189986318        41.04672249469136         
C       98.37580679838527         26.202069124261563        41.74481334865784         
H       97.62517251338645         25.67586932508148         41.1714230875554          
C       98.00840602528855         27.26981096960554         42.561190977962674        
H       96.97250492247666         27.57644252028687         42.61533178807728         
C       98.97332672316946         27.93878489399087         43.311873377712075        
H       98.68754357927074         28.767720472607838        43.9454049800543          
C       100.3072982802374         27.539520955792153        43.246354734656954        
H       101.05690976010482        28.059236551450624        43.82796442240324         
C       100.67550642574868        26.473862074303028        42.427264281848174        
H       101.7108840835501         26.164944096870773        42.37453706928368         

