13

C       103.91050548895376        25.38356241086991         32.43314853632123         
C       102.79462366525638        25.337192238702627        31.59783284589336         
C       102.77410790061434        24.462488439946423        30.51077905796812         
C       103.86937999810901        23.634214987676046        30.259567790876567        
C       104.98722862726835        23.67894417213365         31.094415682617523        
C       104.99746114808764        24.555595018452145        32.17582554440294         
H       103.93293918704374        26.062080107348315        33.28091388991598         
H       101.9429266661754         25.98251680398562         31.794900542888016        
H       103.8503409016254         22.95364090430954         29.412339049712216        
H       105.83136680166588        23.029458389211054        30.887326087740696        
O       106.06849315865759        24.633418595119057        33.01670878436509         
H       106.74467859037479        24.00661290393948         32.71225225637086         
H       101.90444786616774        24.426575028306058        29.85968993092737         

