12

C       98.77490634960787         20.673754754667414        37.30996648301923         
H       98.31140687851541         20.452215179160685        36.35821306601391         
C       99.10394831435843         21.98822879201299         37.633411734302236        
H       98.89051873709859         22.78647471587302         36.93601248667464         
C       99.69666283497811         22.27482221971259         38.861451682449676        
H       99.94966183211524         23.295835884420264        39.11357830525619         
C       99.95829410491447         21.24815440147711         39.76678278187744         
H       100.4185615822624         21.471216797077986        40.71996980810292         
C       99.62668388410742         19.933252017848282        39.4439037286957          
H       99.83064746549184         19.13576052139968         40.14582799139147         
C       99.03704125257707         19.645942581605958        38.21431431961311         
H       98.78136676397304         18.625442134743995        37.962467612603454        

