43
Properties=species:S:1:pos:R:3 pbc="F F F"
H      14.12460000      20.08840000      59.81020000 
H      13.03460000      19.61570000      57.56480000 
H      11.54960000      20.40690000      58.19360000 
C      13.30500000      20.70000000      59.40500000 
C      12.45200000      19.84200000      58.47000000 
C      12.03200000      18.53400000      59.12400000 
C      11.24700000      17.63100000      58.18800000 
C      12.10700000      17.10400000      57.02600000 
C      14.73500000      20.99200000      55.34700000 
C      15.14800000      21.13800000      54.02500000 
C      16.38400000      21.71000000      53.74100000 
C      17.21100000      22.14000000      54.77000000 
C      16.79900000      21.99800000      56.09400000 
C      15.56200000      21.42000000      56.38900000 
C      12.79800000      20.93300000      61.80500000 
C      11.74300000      20.69600000      64.17400000 
C      11.86100000      21.49700000      62.87000000 
C      11.15300000      19.29300000      64.03500000 
O      12.99900000      22.51000000      57.51300000 
O      14.57900000      22.96400000      59.47100000 
O      15.17500000      21.22200000      57.75000000 
O      13.76200000      20.23000000      62.12100000 
O      11.93800000      18.34500000      64.01800000 
O       9.96300000      19.13400000      64.31100000 
N      12.48300000      21.18200000      60.51800000 
P      13.98400000      22.02100000      58.49900000 
H      11.40480000      18.76390000      59.99790000 
H      12.93570000      17.99930000      59.45170000 
H      10.40250000      18.20060000      57.77280000 
H      10.86450000      16.77400000      58.76170000 
H      11.49430000      16.45790000      56.38010000 
H      12.95170000      16.52530000      57.42800000 
H      12.48970000      17.95200000      56.43910000 
H      13.77180000      20.54630000      55.56780000 
H      14.50620000      20.80580000      53.21700000 
H      16.70300000      21.82050000      52.71090000 
H      18.17360000      22.58450000      54.54450000 
H      17.44140000      22.33760000      56.89840000 
H      11.10340000      21.26540000      64.86450000 
H      12.75080000      20.59840000      64.60380000 
H      10.85600000      21.56550000      62.42820000 
H      12.21750000      22.50500000      63.12850000 
H      11.66050000      21.71370000      60.31620000 
