25

C       101.25956178274649        20.42471970315449         32.20372672590631         
H       100.70504453850866        19.93933458978824         31.412109376699426        
C       102.41934823711335        21.136120733016494        31.90450875355436         
H       102.76106271648496        21.207753679363574        30.88117382031626         
C       103.13146690184546        21.765721319400935        32.92334069208227         
H       104.03051177444935        22.320303348386062        32.690526774604415        
C       102.68319525470879        21.686151891719724        34.2404752207284          
H       103.23650350937541        22.17503979623021         35.031049114897144        
C       101.52128876563219        20.97631090834442         34.53927881669483         
H       101.1735241894862         20.913235765814402        35.56171357059007         
C       100.81080589778169        20.343636365717636        33.52092117931839         
H       99.9101864318674          19.79097189906385         33.75257595460813         
C       103.91050548895376        25.38356241086991         32.43314853632123         
C       102.79462366525638        25.337192238702627        31.59783284589336         
C       102.77410790061434        24.462488439946423        30.51077905796812         
C       103.86937999810901        23.634214987676046        30.259567790876567        
C       104.98722862726835        23.67894417213365         31.094415682617523        
C       104.99746114808764        24.555595018452145        32.17582554440294         
H       103.93293918704374        26.062080107348315        33.28091388991598         
H       101.9429266661754         25.98251680398562         31.794900542888016        
H       103.8503409016254         22.95364090430954         29.412339049712216        
H       105.83136680166588        23.029458389211054        30.887326087740696        
O       106.06849315865759        24.633418595119057        33.01670878436509         
H       106.74467859037479        24.00661290393948         32.71225225637086         
H       101.90444786616774        24.426575028306058        29.85968993092737         

