25

C       102.62301243753348        23.515799994273802        35.98472905733886         
H       103.16450785476187        22.8129632163132          35.3662233688714          
C       101.73288532308719        24.41387084947416         35.40003264109601         
H       101.57932660627337        24.403869316862796        34.329783072146824        
C       101.03137026269374        25.316302896167496        36.1969149606025          
H       100.33825619049593        26.011771226336062        35.7430846898471          
C       101.21784500617761        25.319503299354267        37.577979425955974        
H       100.67304572652219        26.020396056816544        38.19613116899635         
C       102.10674587086424        24.419096548780427        38.16304988007275         
H       102.25275852897937        24.421957192789833        39.23494708614523         
C       102.81105872800683        23.518772010224286        37.365883407786484        
H       103.50248746460434        22.821197392607118        37.819241241140475        
C       103.53872907909535        17.640215996484006        36.262589474210984        
C       104.81087198086735        17.160749942944367        35.95136691562271         
C       105.62962858959101        16.652003833517092        36.96034093997316         
C       105.17585003174412        16.622617266871682        38.28018427542597         
C       103.90288604992722        17.101908612208426        38.59387164731422         
C       103.09442142494444        17.607764755719955        37.57969059236243         
H       102.89644375133236        18.037506855503473        35.482060704030175        
H       105.16243650784222        17.184277984076807        34.9234972426323          
H       105.815678225287          16.22539094708654         39.06387505859087         
H       103.56313889362855        17.072861521446953        39.62392760516566         
O       101.84454650824883        18.08736160164625         37.84055503607347         
H       101.67609411607427        18.004706789287145        38.79323434390194         
H       106.62117484141751        16.278533893207292        36.71770616469599         

