25

C       101.25956178274649        20.42471970315449         32.20372672590631         
H       100.70504453850866        19.93933458978824         31.412109376699426        
C       102.41934823711335        21.136120733016494        31.90450875355436         
H       102.76106271648496        21.207753679363574        30.88117382031626         
C       103.13146690184546        21.765721319400935        32.92334069208227         
H       104.03051177444935        22.320303348386062        32.690526774604415        
C       102.68319525470879        21.686151891719724        34.2404752207284          
H       103.23650350937541        22.17503979623021         35.031049114897144        
C       101.52128876563219        20.97631090834442         34.53927881669483         
H       101.1735241894862         20.913235765814402        35.56171357059007         
C       100.81080589778169        20.343636365717636        33.52092117931839         
H       99.9101864318674          19.79097189906385         33.75257595460813         
C       103.53872907909535        17.640215996484006        36.262589474210984        
C       104.81087198086735        17.160749942944367        35.95136691562271         
C       105.62962858959101        16.652003833517092        36.96034093997316         
C       105.17585003174412        16.622617266871682        38.28018427542597         
C       103.90288604992722        17.101908612208426        38.59387164731422         
C       103.09442142494444        17.607764755719955        37.57969059236243         
H       102.89644375133236        18.037506855503473        35.482060704030175        
H       105.16243650784222        17.184277984076807        34.9234972426323          
H       105.815678225287          16.22539094708654         39.06387505859087         
H       103.56313889362855        17.072861521446953        39.62392760516566         
O       101.84454650824883        18.08736160164625         37.84055503607347         
H       101.67609411607427        18.004706789287145        38.79323434390194         
H       106.62117484141751        16.278533893207292        36.71770616469599         

