12

C       1.8699931651316337        11.571478877989655        -2.7341979106026617       
H       2.4564120899454664        12.15635359962662         -3.4297412339192412       
C       1.5135604716479065        10.263317468740945        -3.0541930705166314       
H       1.8281450479598185        9.831579919981161         -3.994274813418571        
C       0.7622016678919961        9.50772413877342          -2.156380686035846        
H       0.48778148359510687       8.491103755553866         -2.4038110578033076       
C       0.3692100116317074        10.0587814317398          -0.9381789178634459       
H       -0.2141865953548463       9.471758441797924         -0.24160092636767905      
C       0.7281054418608479        11.366959419823022        -0.6171665790738416       
H       0.42229014680353316       11.795608148046465        0.3278354172740148        
C       1.4766246211814273        12.124014914849806        -1.5164447760957647       
H       1.753662447705401         13.139919883077315        -1.26864544557703         

