11

C       1.874           11.607          -2.722          
C       0.728           11.388          -0.635          
C       1.5             10.247          -3.045          
C       0.37            10.035          -0.955          
C       1.509           12.167          -1.504          
C       0.76            9.48            -2.147          
H       2.446           12.196          -3.439          
H       0.385           11.821          0.305           
H       1.8             9.818           -4.001          
H       -0.214          9.446           -0.248          
H       0.494           8.451           -2.389          

