12

C       17.826571606861858        6.440922779904147         0.1185805937982436        
H       17.113928369362135        5.816931069930365         -0.40345395671532547      
C       19.142369562961782        6.0111486925667315        0.27573469834709763       
H       19.45188486296543         5.05752524673216          -0.1291320113466624       
C       20.062107993483334        6.816810045623731         0.9439557797356743        
H       21.084405295384474        6.484178900622353         1.0635800995904574        
C       19.667304225525143        8.052616699491907         1.4529096372327535        
H       20.38173265613592         8.677620959745553         1.9716872217521808        
C       18.351229752464143        8.483517309639279         1.2933566819738957        
H       18.04393928261542         9.442217582052987         1.6892832595284117        
C       17.430324715041106        7.676372439821028         0.6281000914954906        
H       16.40840167719926         8.009438273869767         0.5057979046077834        

