16

C       23.418183714012027        6.835153454252195         4.401149618957018         
C       23.308532763002265        7.722831353178417         5.47801168844437          
C       22.134515042792447        7.867711296225965         6.217870171355718         
C       21.013331097660163        7.090603490899342         5.868906118653943         
C       21.105895037945462        6.197932047742401         4.79459524114643          
C       22.29174396290902         6.074193670292402         4.073336403343516         
H       24.339649921345163        6.736093415380493         3.837253318701533         
H       20.08597260032628         7.181514870454141         6.426184997214833         
H       20.242360844587886        5.596224732765763         4.522095123704462         
C       22.388779570543544        8.844419719787348         7.220063438780594         
C       23.6901085483082          9.267733392951298         7.073405620228542         
H       24.272108028986466        9.992922556212973         7.625761358840947         
N       24.236168355828134        8.584529240940173         6.0190199112557545        
H       25.182237155626396        8.691877939189            5.681275121462399         
H       22.343021729213095        5.374784695868124         3.2419932809339738        
H       21.690891626913462        9.197374123859934         7.967578586975961         

