10

C       17.801          6.43            0.103           
C       17.416          7.683           0.626           
H       16.3936         8.0231          0.5075          
C       18.339          8.488           1.294           
H       18.0163         9.4465          1.6841          
C       19.699          8.085           1.479           
C       20.09           6.805           0.942           
H       21.1121         6.4631          1.0586          
C       19.151          5.991           0.264           
H       19.4575         5.0307          -0.1346         

